C Pumping period 1: 0 - 0.2 days
ROCKS----1----*----2----*----3----*----4----*----5----*----6----*----7----*----8
OUTB1    2  2600.e00      .250  1.00e-13  1.00e-13  1.00e-13      2.51   20000.0 
  6.0e-10
    7           .950       .50        1.       .25
    7           .800       .32    1.0e-4      1.e7      .999
HOMO1    2  2600.e00      .250  1.00e-13  1.00e-13  1.00e-13      2.51      920.
  6.0e-10
    7           .950       .50        1.       .25
    7           .800       .32    1.0e-4      1.e7      .999
HETE1    2  2600.e00      .250  1.00e-13  1.00e-13  1.00e-13      2.51      920.
  6.0e-10
    7           .950       .50        1.       .25
    7           .800       .32    1.0e-4      1.e7      .999
MWELL    2  2600.e00      .250  1.00e-13  1.00e-13  1.00e-13      2.51      920.
  6.0e-10
    7           .950       .50        1.       .25
    7           .800       .32    1.0e-4      1.e7      .999
WELL1    2  2600.e00      .250  2.00e-10  2.00e-10  2.00e-07      2.51      920.
  6.0e-10
    7           .950       .50        1.       .25
    7           .800       .32    1.0e-4      1.e7      .999
WELL2    2  2600.e00      .250  2.00e-10  2.00e-10  2.00e-07      2.51      920.
  6.0e-10
    7           .950       .50        1.       .25
    7           .800       .32    1.0e-4      1.e7      .999
WELL3    2  2600.e00      .250  2.00e-10  2.00e-10  2.00e-07      2.51      920.
  6.0e-10
    7           .950       .50        1.       .25
    7           .800       .32    1.0e-4      1.e7      .999
WELL4    2  2600.e00      .250  2.00e-10  2.00e-10  2.00e-07      2.51      920.
  6.0e-10
    7           .950       .50        1.       .25
    7           .800       .32    1.0e-4      1.e7      .999
WELL5    2  2600.e00      .250  2.00e-10  2.00e-10  2.00e-07      2.51      920.
  6.0e-10
    7           .950       .50        1.       .25
    7           .800       .32    1.0e-4      1.e7      .999
CFBED    0  2600.e00      .000  0.00e-13  0.00e-13  0.00e-10      2.51      920.
SEED

START
PARAM----1 MOP: 123456789*123456789*1234 ---*----5----*----6----*----7----*----8
    9000    90001000301000220004   01
0.0000E+000.1728E+05 60.00E+00 3600.E+00dummy         0.0000       3.0
     5.E-6    1.E-00
              100.e5                90.0

MULTI----1----*----2----*----3----*----4----*----5----*----6----*----7----*----8
    1    1    2    6

SELEC....2....3....4....5....6....7....8....9...10...11...12...13...14...15...16
    1                                       0    0    0    0    1    0    0    0
        .8   .8

SOLVR----1----*----2----*----3----*----4----*----5----*----6----*----7----*----8
5  Z1   O0    8.0e-1    1.0e-7


TIMES----1----*----2----*----3----*----4----*----5----*----6----*----7----*----8
   1
0.1728E+05

FOFT ----1----*----2----*----3----*----4----*----5----*----6----*----7----*----8
02AKm          MWELL3.2000E+010.2280E+03             322.000   262.000  1019.000
2AAKm          MWELL3.2000E+010.0000E+00             322.000   262.000  1017.000
2BAKm          MWELL3.2000E+010.0000E+00             322.000   262.000  1015.000
2CAKm          MWELL3.2000E+010.0000E+00             322.000   262.000  1013.000
2DAKm          MWELL3.2000E+010.0000E+00             322.000   262.000  1011.000
03AKm          MWELL3.2000E+010.0000E+00             322.000   262.000  1009.000
3AAKm          MWELL3.2000E+010.0000E+00             322.000   262.000  1007.000
3BAKm          MWELL3.2000E+010.0000E+00             322.000   262.000  1005.000
3CAKm          MWELL3.2000E+010.0000E+00             322.000   262.000  1003.000
3DAKm          MWELL3.2000E+010.2280E+03             322.000   262.000  1001.000
02APT          MWELL3.2000E+010.2520E+03             262.000   322.000  1019.000
2AAPT          MWELL3.2000E+010.0000E+00             262.000   322.000  1017.000
2BAPT          MWELL3.2000E+010.0000E+00             262.000   322.000  1015.000
2CAPT          MWELL3.2000E+010.0000E+00             262.000   322.000  1013.000
2DAPT          MWELL3.2000E+010.0000E+00             262.000   322.000  1011.000
03APT          MWELL3.2000E+010.0000E+00             262.000   322.000  1009.000
3AAPT          MWELL3.2000E+010.0000E+00             262.000   322.000  1007.000
3BAPT          MWELL3.2000E+010.0000E+00             262.000   322.000  1005.000
3CAPT          MWELL3.2000E+010.0000E+00             262.000   322.000  1003.000
3DAPT          MWELL3.2000E+010.2520E+03             262.000   322.000  1001.000
02AP^          MWELL4.2600E+010.3880E+03             382.000   322.000  1019.000
2AAP^          MWELL4.2600E+010.0000E+00             382.000   322.000  1017.000
2BAP^          MWELL4.2600E+010.0000E+00             382.000   322.000  1015.000
2CAP^          MWELL4.2600E+010.0000E+00             382.000   322.000  1013.000
2DAP^          MWELL4.2600E+010.0000E+00             382.000   322.000  1011.000
03AP^          MWELL4.2600E+010.0000E+00             382.000   322.000  1009.000
3AAP^          MWELL4.2600E+010.0000E+00             382.000   322.000  1007.000
3BAP^          MWELL4.2600E+010.0000E+00             382.000   322.000  1005.000
3CAP^          MWELL4.2600E+010.0000E+00             382.000   322.000  1003.000
3DAP^          MWELL4.2600E+010.3880E+03             382.000   322.000  1001.000
02AUY          MWELL4.2600E+010.2280E+03             322.000   382.000  1019.000
2AAUY          MWELL4.2600E+010.0000E+00             322.000   382.000  1017.000
2BAUY          MWELL4.2600E+010.0000E+00             322.000   382.000  1015.000
2CAUY          MWELL4.2600E+010.0000E+00             322.000   382.000  1013.000
2DAUY          MWELL4.2600E+010.0000E+00             322.000   382.000  1011.000
03AUY          MWELL4.2600E+010.0000E+00             322.000   382.000  1009.000
3AAUY          MWELL4.2600E+010.0000E+00             322.000   382.000  1007.000
3BAUY          MWELL4.2600E+010.0000E+00             322.000   382.000  1005.000
3CAUY          MWELL4.2600E+010.0000E+00             322.000   382.000  1003.000
3DAUY          MWELL4.2600E+010.2280E+03             322.000   382.000  1001.000
02AYN          MWELL8.0000E+000.4040E+03             291.000   291.000  1019.000
2AAYN          MWELL8.0000E+000.0000E+00             291.000   291.000  1017.000
2BAYN          MWELL8.0000E+000.0000E+00             291.000   291.000  1015.000
2CAYN          MWELL8.0000E+000.0000E+00             291.000   291.000  1013.000
2DAYN          MWELL8.0000E+000.0000E+00             291.000   291.000  1011.000
03AYN          MWELL8.0000E+000.0000E+00             291.000   291.000  1009.000
3AAYN          MWELL8.0000E+000.0000E+00             291.000   291.000  1007.000
3BAYN          MWELL8.0000E+000.0000E+00             291.000   291.000  1005.000
3CAYN          MWELL8.0000E+000.0000E+00             291.000   291.000  1003.000
3DAYN          MWELL8.0000E+000.4040E+03             291.000   291.000  1001.000
02AYk          MWELL8.0000E+000.2360E+03             351.000   291.000  1019.000
2AAYk          MWELL8.0000E+000.0000E+00             351.000   291.000  1017.000
2BAYk          MWELL8.0000E+000.0000E+00             351.000   291.000  1015.000
2CAYk          MWELL8.0000E+000.0000E+00             351.000   291.000  1013.000
2DAYk          MWELL8.0000E+000.0000E+00             351.000   291.000  1011.000
03AYk          MWELL8.0000E+000.0000E+00             351.000   291.000  1009.000
3AAYk          MWELL8.0000E+000.0000E+00             351.000   291.000  1007.000
3BAYk          MWELL8.0000E+000.0000E+00             351.000   291.000  1005.000
3CAYk          MWELL8.0000E+000.0000E+00             351.000   291.000  1003.000
3DAYk          MWELL8.0000E+000.2360E+03             351.000   291.000  1001.000
02Amr          MWELL8.0000E+000.2760E+03             291.000   351.000  1019.000
2AAmr          MWELL8.0000E+000.0000E+00             291.000   351.000  1017.000
2BAmr          MWELL8.0000E+000.0000E+00             291.000   351.000  1015.000
2CAmr          MWELL8.0000E+000.0000E+00             291.000   351.000  1013.000
2DAmr          MWELL8.0000E+000.0000E+00             291.000   351.000  1011.000
03Amr          MWELL8.0000E+000.0000E+00             291.000   351.000  1009.000
3AAmr          MWELL8.0000E+000.0000E+00             291.000   351.000  1007.000
3BAmr          MWELL8.0000E+000.0000E+00             291.000   351.000  1005.000
3CAmr          MWELL8.0000E+000.0000E+00             291.000   351.000  1003.000
3DAmr          MWELL8.0000E+000.2760E+03             291.000   351.000  1001.000
02AnU          MWELL8.0000E+000.3000E+03             351.000   351.000  1019.000
2AAnU          MWELL8.0000E+000.0000E+00             351.000   351.000  1017.000
2BAnU          MWELL8.0000E+000.0000E+00             351.000   351.000  1015.000
2CAnU          MWELL8.0000E+000.0000E+00             351.000   351.000  1013.000
2DAnU          MWELL8.0000E+000.0000E+00             351.000   351.000  1011.000
03AnU          MWELL8.0000E+000.0000E+00             351.000   351.000  1009.000
3AAnU          MWELL8.0000E+000.0000E+00             351.000   351.000  1007.000
3BAnU          MWELL8.0000E+000.0000E+00             351.000   351.000  1005.000
3CAnU          MWELL8.0000E+000.0000E+00             351.000   351.000  1003.000
3DAnU          MWELL8.0000E+000.3000E+03             351.000   351.000  1001.000
03Aqd          WELL18.0000E-020.2740E+03             321.000   321.000  1019.000
03ArO          WELL28.0000E-020.2860E+03             351.000   321.000  1019.000
03Art          WELL38.0000E-020.3020E+03             321.000   351.000  1019.000
03As_          WELL48.0000E-020.3180E+03             291.000   321.000  1019.000
03AtJ          WELL58.0000E-020.3300E+03             321.000   291.000  1019.000


GENER----1----*----2----*----3----*----4----*----5----*----6----*----7----*----8
01Aqd                        2     COM1
 0.0000000E+00 0.1728000E+05
 -3.000000E+00 0.0000000E+00
01ArO                        2     COM1
 0.0000000E+00 0.1728000E+05
 0.0000000E+00 0.0000000E+00
01Art                        2     COM1
 0.0000000E+00 0.1728000E+05
 0.0000000E+00 0.0000000E+00
01As_                        2     COM1
 0.0000000E+00 0.1728000E+05
 0.0000000E+00 0.0000000E+00
01AtJ                        2     COM1
 0.0000000E+00 0.1728000E+05
 0.0000000E+00 0.0000000E+00

ENDCY
